*Heading
** Job name: CubeCompression Model name: Cube
** Generated for demonstration

*Preprint, echo=NO, model=NO, history=NO, contact=NO

** ----------------------------------------------------------------
** PART DEFINITION
** ----------------------------------------------------------------
*Part, name=CUBE
*Node
1, 0., 0., 0.
2, 1., 0., 0.
3, 1., 1., 0.
4, 0., 1., 0.
5, 0., 0., 1.
6, 1., 0., 1.
7, 1., 1., 1.
8, 0., 1., 1.

*Element, type=C3D8
1, 1,2,3,4,5,6,7,8

*Nset, nset=ALLNODES
1,2,3,4,5,6,7,8

*Elset, elset=ALLELEMENTS
1

** ----------------------------------------------------------------
** MATERIAL
** ----------------------------------------------------------------
*Material, name=STEEL
*Elastic
210000., 0.3

** ----------------------------------------------------------------
** SECTION
** ----------------------------------------------------------------
*Solid Section, elset=ALLELEMENTS, material=STEEL
,

*End Part

** ----------------------------------------------------------------
** ASSEMBLY
** ----------------------------------------------------------------
*Assembly, name=ASSEMBLY
*Instance, name=CUBE-1, part=CUBE
*End Instance

** Node sets for BCs
*Nset, nset=FIXED, instance=CUBE-1
1,2,3,4

*Nset, nset=TOP, instance=CUBE-1
5,6,7,8

*End Assembly

** ----------------------------------------------------------------
** STEP
** ----------------------------------------------------------------
*Step, name=COMPRESSION, nlgeom=NO
*Static
1., 1., 1e-05, 1.

** Boundary conditions (fix bottom)
*Boundary
FIXED, 1, 3, 0.0

** Apply displacement on top in Z
*Boundary
TOP, 3, 3, -0.1

** Output requests
*Output, field
*Node Output
U
*Element Output
S, E

*End Step