*Heading
** Simple beam sample for simcopilot
*Part, name=Part-1
*Node
1, 0.0, 0.0, 0.0
2, 1.0, 0.0, 0.0
*Element, type=C3D8
1, 1,2,3,4,5,6,7,8
*End Part
*Nset, nset=LEFT
1
*Nset, nset=TOP
2
*Elset, elset=ALL_ELEMENTS
1
*Material, name=Steel
*Elastic
210000., 0.3
*Boundary
LEFT, 1, 3, 0.0
*Cload
TOP, 2, -1000.0
*Step, name=Step-1
*Static
*End Step
